43098
                    3D
 Schrodinger Suite 2021-2.
 55 59  0  0  1  0            999 V2000
   42.3917   33.3121   70.2593 C   0  0  0  0  0  0
   43.1401   34.4154   70.9755 C   0  0  0  0  0  0
   42.5436   35.0989   72.0539 C   0  0  0  0  0  0
   43.3333   36.0894   72.6677 C   0  0  0  0  0  0
   42.8018   36.8820   73.8418 C   0  0  0  0  0  0
   44.5969   36.3588   72.2537 N   0  0  0  0  0  0
   45.0656   35.6515   71.2192 C   0  0  0  0  0  0
   44.3931   34.7066   70.5507 N   0  0  0  0  0  0
   46.3886   35.9288   70.8009 N   0  0  0  0  0  0
   47.0374   35.2788   69.6750 C   0  0  0  0  0  0
   48.4712   35.8393   69.5581 C   0  0  1  0  0  0
   48.6697   36.7714   68.3597 C   0  0  0  0  0  0
   48.4586   38.1185   68.8881 N   0  0  0  0  0  0
   48.9238   38.1321   70.2719 C   0  0  0  0  0  0
   48.6777   36.7103   70.7933 C   0  0  1  0  0  0
   47.3933   36.5651   71.6318 C   0  0  0  0  0  0
   47.5286   38.9856   68.4187 C   0  0  0  0  0  0
   47.1202   39.9480   69.0749 O   0  0  0  0  0  0
   46.9633   38.7422   67.0449 C   0  0  0  0  0  0
   45.5845   38.3937   66.9144 C   0  0  0  0  0  0
   44.6706   38.2321   68.1166 C   0  0  0  0  0  0
   45.0381   38.1413   65.6392 C   0  0  0  0  0  0
   45.8244   38.2577   64.4841 C   0  0  0  0  0  0
   47.1827   38.5934   64.6015 C   0  0  0  0  0  0
   47.7711   38.8240   65.8655 C   0  0  0  0  0  0
   49.1631   39.0839   65.8744 N   0  0  0  0  0  0
   50.0237   38.3672   65.0943 N   0  0  0  0  0  0
   51.1774   38.9280   65.3350 C   0  0  0  0  0  0
   51.0131   39.9839   66.2593 C   0  0  0  0  0  0
   49.7555   40.0752   66.5946 N   0  0  0  0  0  0
   41.5335   32.9674   70.8363 H   0  0  0  0  0  0
   42.0319   33.6662   69.2910 H   0  0  0  0  0  0
   43.0439   32.4550   70.0821 H   0  0  0  0  0  0
   41.5448   34.8742   72.3874 H   0  0  0  0  0  0
   41.7916   36.5728   74.1074 H   0  0  0  0  0  0
   43.4415   36.7437   74.7155 H   0  0  0  0  0  0
   42.7782   37.9435   73.6034 H   0  0  0  0  0  0
   46.4821   35.4606   68.7587 H   0  0  0  0  0  0
   47.0629   34.2024   69.8369 H   0  0  0  0  0  0
   49.1853   35.0162   69.5130 H   0  0  0  0  0  0
   47.9839   36.5129   67.5539 H   0  0  0  0  0  0
   49.6899   36.6819   67.9714 H   0  0  0  0  0  0
   48.4360   38.8815   70.8985 H   0  0  0  0  0  0
   49.9949   38.3502   70.2839 H   0  0  0  0  0  0
   49.5366   36.3731   71.3685 H   0  0  0  0  0  0
   47.5997   35.9300   72.4924 H   0  0  0  0  0  0
   47.0358   37.5297   71.9877 H   0  0  0  0  0  0
   43.6407   38.0331   67.8191 H   0  0  0  0  0  0
   45.0030   37.4005   68.7357 H   0  0  0  0  0  0
   44.6661   39.1353   68.7229 H   0  0  0  0  0  0
   44.0001   37.8716   65.5372 H   0  0  0  0  0  0
   45.3934   38.0790   63.5144 H   0  0  0  0  0  0
   47.7727   38.6667   63.7039 H   0  0  0  0  0  0
   52.0889   38.5926   64.8648 H   0  0  0  0  0  0
   51.7639   40.6418   66.6626 H   0  0  0  0  0  0
  1  2  1  0  0  0
  1 31  1  0  0  0
  1 32  1  0  0  0
  1 33  1  0  0  0
  2  3  2  0  0  0
  2  8  1  0  0  0
  3  4  1  0  0  0
  3 34  1  0  0  0
  4  5  1  0  0  0
  4  6  2  0  0  0
  5 35  1  0  0  0
  5 36  1  0  0  0
  5 37  1  0  0  0
  6  7  1  0  0  0
  7  8  2  0  0  0
  7  9  1  0  0  0
  9 10  1  0  0  0
  9 16  1  0  0  0
 10 11  1  0  0  0
 10 38  1  0  0  0
 10 39  1  0  0  0
 11 12  1  0  0  0
 11 15  1  0  0  0
 11 40  1  0  0  0
 12 13  1  0  0  0
 12 41  1  0  0  0
 12 42  1  0  0  0
 13 14  1  0  0  0
 13 17  1  0  0  0
 14 15  1  0  0  0
 14 43  1  0  0  0
 14 44  1  0  0  0
 15 16  1  0  0  0
 15 45  1  0  0  0
 16 46  1  0  0  0
 16 47  1  0  0  0
 17 18  2  0  0  0
 17 19  1  0  0  0
 19 20  2  0  0  0
 19 25  1  0  0  0
 20 21  1  0  0  0
 20 22  1  0  0  0
 21 48  1  0  0  0
 21 49  1  0  0  0
 21 50  1  0  0  0
 22 23  2  0  0  0
 22 51  1  0  0  0
 23 24  1  0  0  0
 23 52  1  0  0  0
 24 25  2  0  0  0
 24 53  1  0  0  0
 25 26  1  0  0  0
 26 27  1  0  0  0
 26 30  1  0  0  0
 27 28  2  0  0  0
 28 29  1  0  0  0
 28 54  1  0  0  0
 29 30  2  0  0  0
 29 55  1  0  0  0
M  END
> <entry id>
59

> <entry name>
OX2_Set2_JOB19_Ligs.1

> <Source Path>
C:\shenshi\GPCR\OX2_fep\ci0c00449_si_002\SI_DataSet_Inputs

> <Source File>
OX2_Set2_JOB19_Ligs.sdf

> <Source File Index>
1

> <HCRTR2_C pKi>
8.0961

> <job name>
constraint-docking

> <glide gridfile>
glide-grid_1

> <glide lignum>
1

> <glide rotatable bonds>
4

> <docking score>
-9.38003464133184

> <glide ligand efficiency>
-0.312667821377728

> <glide ligand efficiency sa>
-0.971531617049195

> <glide ligand efficiency ln>
-2.13124607417388

> <glide gscore>
-9.38003464133184

> <glide lipo>
-2.46981959013164

> <glide hbond>
-1.2044193698639

> <glide metal>
0

> <glide rewards>
-1.19195645623508

> <glide evdw>
-46.9899597167969

> <glide ecoul>
-17.6358470916748

> <glide erotb>
0.482415721039915

> <glide esite>
-0.00137989655008109

> <glide emodel>
-111.465395541618

> <glide energy>
-64.6258068084717

> <glide einternal>
3.18646414143586e-07

> <glide confnum>
2

> <glide posenum>
4

> <glide eff state penalty>
0

> <glide rmsd>
0.0351284839686111

> <core constrain type>
snapped_core_restrain

> <subgroup title>
constraint-docking_pv1

> <subgroupid>
constraint-docking_pv1

> <subgroup collapsed>
0

$$$$
