EG_Cpd1


 34 35  0  0  0  0  0  0  0  0999 V2000
    9.9409   17.8877   -0.3754 C   0  0  0  0  0  0  0  0  0  0  0  0
    9.2079   19.0663   -3.8741 C   0  0  0  0  0  0  0  0  0  0  0  0
    9.2201   16.7143    2.7835 C   0  0  0  0  0  0  0  0  0  0  0  0
   11.7133   15.4785    1.2352 C   0  0  0  0  0  0  0  0  0  0  0  0
   11.3470   16.9649    1.4952 C   0  0  0  0  0  0  0  0  0  0  0  0
   12.1646   17.6371    2.6260 C   0  0  0  0  0  0  0  0  0  0  0  0
   13.3225   17.0394    3.1462 C   0  0  0  0  0  0  0  0  0  0  0  0
   14.0219   17.6361    4.1900 C   0  0  0  0  0  0  0  0  0  0  0  0
   13.5837   18.8499    4.7057 C   0  0  0  0  0  0  0  0  0  0  0  0
   12.4466   19.4660    4.1921 C   0  0  0  0  0  0  0  0  0  0  0  0
   11.7397   18.8608    3.1604 C   0  0  0  0  0  0  0  0  0  0  0  0
   10.0860   18.7897   -2.6593 C   0  0  0  0  0  0  0  0  0  0  0  0
    7.7088   16.9373    2.9027 C   0  0  0  0  0  0  0  0  0  0  0  0
    9.4471   18.2816   -1.5808 N   0  0  0  0  0  0  0  0  0  0  0  0
    9.1710   17.5146    0.5589 N   0  0  0  0  0  0  0  0  0  0  0  0
    9.8737   17.0807    1.6398 N   0  0  0  0  0  0  0  0  0  0  0  0
   11.2868   19.0490   -2.7365 O   0  0  0  0  0  0  0  0  0  0  0  0
    9.7913   16.2237    3.7581 O   0  0  0  0  0  0  0  0  0  0  0  0
   11.6982   17.8473   -0.0287 S   0  0  0  0  0  0  0  0  0  0  0  0
    8.1997   18.6733   -3.7378 H   0  0  0  0  0  0  0  0  0  0  0  0
    9.6393   18.6034   -4.7626 H   0  0  0  0  0  0  0  0  0  0  0  0
    9.1382   20.1400   -4.0485 H   0  0  0  0  0  0  0  0  0  0  0  0
   11.5948   14.8671    2.1313 H   0  0  0  0  0  0  0  0  0  0  0  0
   12.7423   15.3763    0.8976 H   0  0  0  0  0  0  0  0  0  0  0  0
   11.0849   15.0393    0.4584 H   0  0  0  0  0  0  0  0  0  0  0  0
   13.6828   16.1045    2.7425 H   0  0  0  0  0  0  0  0  0  0  0  0
   14.9008   17.1581    4.5969 H   0  0  0  0  0  0  0  0  0  0  0  0
   14.1303   19.3189    5.5106 H   0  0  0  0  0  0  0  0  0  0  0  0
   12.1150   20.4122    4.5938 H   0  0  0  0  0  0  0  0  0  0  0  0
   10.8600   19.3622    2.7884 H   0  0  0  0  0  0  0  0  0  0  0  0
    7.1732   16.4825    2.0705 H   0  0  0  0  0  0  0  0  0  0  0  0
    7.5009   18.0061    2.9147 H   0  0  0  0  0  0  0  0  0  0  0  0
    7.3170   16.5153    3.8275 H   0  0  0  0  0  0  0  0  0  0  0  0
    8.4504   18.1819   -1.7040 H   0  0  0  0  0  0  0  0  0  0  0  0
  1 14  1  0  0  0  0
  1 15  2  0  0  0  0
  1 19  1  0  0  0  0
  2 12  1  0  0  0  0
  2 20  1  0  0  0  0
  2 21  1  0  0  0  0
  2 22  1  0  0  0  0
  3 13  1  0  0  0  0
  3 16  1  0  0  0  0
  3 18  2  0  0  0  0
  4  5  1  0  0  0  0
  4 23  1  0  0  0  0
  4 24  1  0  0  0  0
  4 25  1  0  0  0  0
  5  6  1  0  0  0  0
  5 16  1  0  0  0  0
  5 19  1  0  0  0  0
  6  7  2  0  0  0  0
  6 11  1  0  0  0  0
  7  8  1  0  0  0  0
  7 26  1  0  0  0  0
  8  9  2  0  0  0  0
  8 27  1  0  0  0  0
  9 10  1  0  0  0  0
  9 28  1  0  0  0  0
 10 11  2  0  0  0  0
 10 29  1  0  0  0  0
 11 30  1  0  0  0  0
 12 14  1  0  0  0  0
 12 17  2  0  0  0  0
 13 31  1  0  0  0  0
 13 32  1  0  0  0  0
 13 33  1  0  0  0  0
 14 34  1  0  0  0  0
 15 16  1  0  0  0  0
M  END
> <i_m_stars>
0

> <s_m_entry_id>
49

> <s_m_entry_name>
Structure7

> <s_m_Source_Path>
D:\File\Schrodinger\mcs_docking_EG5_new_325

> <s_m_Source_File>
mcs_docking_EG5_new_325_out_pv.maegz

> <i_m_Source_File_Index>
2

> <r_pdb_PDB_CRYST1_a>
100.295

> <r_pdb_PDB_CRYST1_b>
100.295

> <r_pdb_PDB_CRYST1_c>
185.372

> <r_pdb_PDB_CRYST1_alpha>
90

> <r_pdb_PDB_CRYST1_beta>
90

> <r_pdb_PDB_CRYST1_gamma>
120

> <s_pdb_PDB_CRYST1_Space_Group>
P 65 2 2

> <s_pdb_PDB_TITLE>
EG5-INHIBITOR COMPLEX

> <s_pdb_PDB_ID>
6G6Z

> <i_pdb_PDB_CRYST1_z>
12

> <s_pdb_PDB_CLASSIFICATION>
CELL CYCLE

> <s_pdb_PDB_DEPOSITION_DATE>
04-APR-18

> <s_pdb_PDB_format_version>
3.3

> <r_pdb_PDB_R>
0.219

> <r_pdb_PDB_Rfree>
0.287

> <r_pdb_PDB_RESOLUTION>
2.8

> <s_pdb_PDB_EXPDTA>
X-RAY DIFFRACTION

> <r_pdb_PDB_EXPDTA_TEMPERATURE>
77

> <r_pdb_PDB_EXPDTA_PH>
5.5

> <s_pdb_PDB_REMARK_350_Biomolecule_1_Transform_1_Chains>
A

> <s_pdb_PDB_REMARK_350_Biomolecule_1_Transform_1_Matrix_1>
1.000000 0.000000 0.000000   0.000000;0.000000 1.000000 0.000000   0.000000;0.000000 0.000000 1.000000   0.000000

> <i_lp_mmshare_version>
57137

> <s_epik_input>
W0NIM11DKD1PKVxOPUMoUzEpXFtOSF1OKEMoPU8pW0NIM10pW0NAXTEoW0NIM10pYzJbY0hdW2NIXVtjSF1bY0hdW2NIXTI=

> <s_epik_cmdline>
J2VwaWtfcHl0aG9uJywgJy1waCcsICc3LjAnLCAnLXRuJywgJzgnLCAnLW1hJywgJzUwMCcsICctaW1hZScsICc8aW5maWxlLm1hZT4nLCAnLW9tYWUnLCAnPG91dGZpbGUubWFlPic=

> <r_lp_tautomer_probability>
1

> <r_epik_Ionization_Penalty>
0

> <r_epik_Ionization_Penalty_Charging>
0

> <r_epik_Ionization_Penalty_Neutral>
0

> <r_epik_State_Penalty>
0

> <r_epik_Charging_Adjusted_Penalty>
0

> <i_epik_Tot_Q>
0

> <i_epik_Tot_abs_Q>
0

> <s_epik_Chemistry_Notes>
This compound has an imine and may undergo hydrolysis.

> <i_f3d_flags>
0

> <s_lp_Force_Field>
S-OPLS

> <r_lp_Energy>
15.4225

> <b_lp_Chiralities_Consistent>
1

> <s_lp_Variant>
EG_Cpd1-1

> <s_m_job_name>
ligprep_EG5_out

> <r_phase_Shape_Sim>
0.999976

> <r_glide_mapping_atom_rmsd>
1.10752

> <r_glide_mcs_similarity>
1

> <s_glide_mcs_list>
c1ccccc1C2(C)N(C(C)=O)N=C(S2)NC(C)=O

> <s_glide_best_reflig>
Structure34

> <s_glide_mcs_pose_align_method>
do_not_need_docking-ligand_only_alignment

> <s_glide_mcs_ref_pose_origin>
phase_align_core

> <s_m_subgroup_title>
mcs_docking_EG5_new_325_out_pv

> <s_m_subgroupid>
mcs_docking_EG5_new_325_out_pv

> <b_m_subgroup_collapsed>
0

$$$$